01 00
0D 00 B9 19
 00 40 2C 0D 00 00 00 40 00 00 20 00 00 00 01 00
 00 11 00 30 41 41 F1 77 41 41 00 02 02 00 00 00
 2A 00 02 28 28 02 02 2A 01 00 07 2F 01 00 07 28
 01 00 07 2F 17 17 00 00 00 00 00 00 00 00 00 00
 00 14 77 1F 00 00 00 54 03 00 00 00 00 00 00 00
 00 00 00 00 00 20 44 20 00 00 00 74 03 01 00 00
 1C 1C 1C 1C FB FB FB FB 03 03 03 03 19 19 19 19
 1C 00 01 1C 00 44 86 2A 00 00 00 B8 70 68 4F 00
 01 32 96 4F 96 20 FF 01 70 68 4F 01 01 32 96 4F
 A0 20 FF 01 70 68 4F 11 01 32 96 4F A0 20 FF 01
 70 68 4F 21 01 32 96 4F A0 20 FF 01 70 68 4F 31
 01 32 96 4F A0 20 FF 01 00 58 C8 31 00 00 01 10
 04 03 00 00 00 00 3E 00 00 00 00 00 0E 0D 07 01
 00 00 01 00 01 01 01 01 00 00 00 00 00 27 00 01
 00 00 00 00 00 27 00 01 00 0E FF 0D 00 00 FF 0E
 00 0D 00 0D 00 00 00 0E 00 0D 00 0D 00 00 00 0E
 57 C0 D5 14 50 75 76 10 40 2C 30 08 7F FF FF FF
 00 48 E9 32 00 00 01 58 03 03 00 00 00 00 3E 00
 00 00 00 00 13 24 13 EC 00 10 C0 B8 00 00 E2 00
 00 00 E0 FE 00 00 E2 00 00 00 E0 FE 00 00 E2 00
 00 00 E0 FE 00 00 00 00 5F 00 93 12 58 00 77 0F
 4B 00 52 08 7F FF FF FF 00 48 AD 32 00 00 01 A0
 03 03 01 00 00 00 3E 00 00 00 00 00 14 1E 14 E6
 00 40 30 24 00 00 E2 02 00 00 DF FF 00 00 E2 02
 00 00 DF FF 00 00 E2 02 00 00 DF FF 00 00 00 00
 5A 00 8B 12 54 00 74 0F 47 00 55 08 7F FF FF FF
 00 48 51 32 00 00 01 E8 03 03 02 00 00 00 3E 00
 00 00 00 00 15 18 16 58 00 8C 78 64 00 00 E0 03
 00 00 DA FE 00 00 E0 03 00 00 DA FE 00 00 E0 03
 00 00 DA FE 00 00 00 00 54 00 8A 12 4E 00 71 0F
 41 00 50 08 7F FF FF FF 00 48 F5 32 00 00 02 30
 03 03 03 00 00 00 3E 00 00 00 00 00 16 62 16 DA
 00 A5 9D 95 00 00 DB 01 00 00 D9 00 00 00 DB 01
 00 00 D9 00 00 00 DB 01 00 00 D9 00 00 00 00 00
 4F 00 86 12 48 00 6F 0F 3A 00 50 08 7F FF FF FF
 00 14 6F 35 00 00 02 44 00 00 03 00 00 00 00 00
 00 00 00 00 00 14 5A 36 00 00 02 58 00 00 03 00
 00 00 00 00 00 00 00 00 00 1C CA 37 00 00 02 74
 00 04 3E 01 CE BA 00 00 00 2D C6 C0 00 00 00 00
 00 F0 00 00 00 5C 71 38 FF FF FF FF 00 00 00 00
 00 00 00 00 00 00 00 00 00 00 00 00 00 00 00 00
 00 00 00 00 00 00 00 00 00 00 00 00 00 00 00 00
 00 00 00 00 00 00 00 00 00 00 00 00 00 00 00 00
 00 00 00 00 00 00 00 00 00 00 00 00 00 00 00 00
 00 00 00 00 00 00 00 00 00 00 00 00 00 00 00 00
